@<TRIPOS>MOLECULE
2P1Q.B
   42    42     1     0     0
SMALL
bcc


@<TRIPOS>ATOM
      1 C1          13.4590  -123.8280   -24.7010 c3         1 IHP       0.235433
      2 H1          12.4180  -123.7030   -24.4040 h1         1 IHP      -0.016967
      3 C2          13.4910  -124.5020   -26.1130 c3         1 IHP       0.235433
      4 H2          13.0490  -125.4950   -26.0310 h1         1 IHP      -0.016967
      5 C3          12.6450  -123.6780   -27.1390 c3         1 IHP       0.235433
      6 H3          11.6810  -123.4670   -26.6860 h1         1 IHP      -0.016967
      7 C4          13.3640  -122.2830   -27.3470 c3         1 IHP       0.235433
      8 H4          14.3670  -122.4840   -27.7180 h1         1 IHP      -0.016967
      9 C5          13.5110  -121.5350   -25.9590 c3         1 IHP       0.235433
     10 H5          12.5140  -121.2310   -25.6430 h1         1 IHP      -0.016967
     11 C6          14.1330  -122.4030   -24.7910 c3         1 IHP       0.235433
     12 H6          15.1740  -122.5800   -25.0560 h1         1 IHP      -0.016967
     13 O11         14.1090  -124.7260   -23.7790 os         1 IHP      -0.641033
     14 P1          13.5330  -125.3330   -22.4100 p5         1 IHP       1.430900
     15 O21         14.6210  -125.0150   -21.4680 o          1 IHP      -1.002833
     16 O31         12.2590  -124.6710   -22.0760 o          1 IHP      -1.002833
     17 O41         13.3230  -126.7640   -22.5200 o          1 IHP      -1.002833
     18 O12         14.8310  -124.5620   -26.6330 os         1 IHP      -0.641033
     19 P2          15.8120  -125.8260   -26.5770 p5         1 IHP       1.430900
     20 O22         16.8870  -125.2960   -25.7050 o          1 IHP      -1.002833
     21 O32         15.0340  -126.9590   -26.0410 o          1 IHP      -1.002833
     22 O42         16.2420  -125.9480   -27.9820 o          1 IHP      -1.002833
     23 O13         12.3930  -124.4760   -28.3300 os         1 IHP      -0.641033
     24 P3          11.0370  -125.3310   -28.5750 p5         1 IHP       1.430900
     25 O23         10.7410  -126.0660   -27.3320 o          1 IHP      -1.002833
     26 O33         11.1640  -126.1580   -29.7850 o          1 IHP      -1.002833
     27 O43         10.0280  -124.3040   -28.8100 o          1 IHP      -1.002833
     28 O14         12.6860  -121.3960   -28.2780 os         1 IHP      -0.641033
     29 P4          13.3370  -120.8740   -29.6800 p5         1 IHP       1.430900
     30 O24         12.8980  -119.4660   -29.8970 o          1 IHP      -1.002833
     31 O34         14.7970  -121.0740   -29.6300 o          1 IHP      -1.002833
     32 O44         12.7190  -121.7210   -30.6990 o          1 IHP      -1.002833
     33 O15         14.3080  -120.3550   -26.1420 os         1 IHP      -0.641033
     34 P5          13.8060  -118.8480   -25.8490 p5         1 IHP       1.430900
     35 O25         13.1600  -118.8330   -24.5440 o          1 IHP      -1.002833
     36 O35         12.8290  -118.4560   -26.8810 o          1 IHP      -1.002833
     37 O45         15.0830  -118.1190   -25.9210 o          1 IHP      -1.002833
     38 O16         14.0590  -121.6800   -23.5230 os         1 IHP      -0.641033
     39 P6          15.3290  -121.2310   -22.6040 p5         1 IHP       1.430900
     40 O26         16.5270  -121.7550   -23.2760 o          1 IHP      -1.002833
     41 O36         15.0240  -121.8410   -21.2980 o          1 IHP      -1.002833
     42 O46         15.3630  -119.7760   -22.4720 o          1 IHP      -1.002833
@<TRIPOS>BOND
     1     1     2 1   
     2     1     3 1   
     3     1    11 1   
     4     1    13 1   
     5     3     4 1   
     6     3     5 1   
     7     3    18 1   
     8     5     6 1   
     9     5     7 1   
    10     5    23 1   
    11     7     8 1   
    12     7     9 1   
    13     7    28 1   
    14     9    10 1   
    15     9    11 1   
    16     9    33 1   
    17    11    12 1   
    18    11    38 1   
    19    13    14 1   
    20    14    15 1   
    21    14    16 1   
    22    14    17 1   
    23    18    19 1   
    24    19    20 1   
    25    19    21 1   
    26    19    22 1   
    27    23    24 1   
    28    24    25 1   
    29    24    26 1   
    30    24    27 1   
    31    28    29 1   
    32    29    30 1   
    33    29    31 1   
    34    29    32 1   
    35    33    34 1   
    36    34    35 1   
    37    34    36 1   
    38    34    37 1   
    39    38    39 1   
    40    39    40 1   
    41    39    41 1   
    42    39    42 1   
@<TRIPOS>SUBSTRUCTURE
     1 IHP         1 TEMP              0 ****  ****    0 ROOT
