@<TRIPOS>MOLECULE
2P1Q.B
21 22 1 0 0 
SMALL
USER_CHARGES


@<TRIPOS>ATOM
  1 C        5.7957  -110.9371   -25.1402 C.ar  1 IAC  -0.1516 
  2 C1       7.0035  -111.2575   -25.8306 C.ar  1 IAC   0.0000 
  3 C2       8.2041  -111.1967   -25.0941 C.ar  1 IAC  -0.1500 
  4 H2       9.1347  -111.4254   -25.5940 H     1 IAC   0.1500 
  5 C3       8.1993  -110.8274   -23.7344 C.ar  1 IAC  -0.1500 
  6 H3       9.1325  -110.7611   -23.1966 H     1 IAC   0.1500 
  7 C4       6.9888  -110.5353   -23.0765 C.ar  1 IAC  -0.1500 
  8 H4       6.9887  -110.2518   -22.0342 H     1 IAC   0.1500 
  9 C5       5.7755  -110.5968   -23.7803 C.ar  1 IAC  -0.1500 
 10 H5       4.8386  -110.3676   -23.2922 H     1 IAC   0.1500 
 11 C7       6.6453  -111.5773   -27.2060 C.2   1 IAC  -0.1810 
 12 C8       5.3117  -111.4145   -27.3207 C.2   1 IAC  -0.3016 
 13 H8       4.7293  -111.5876   -28.2114 H     1 IAC   0.1500 
 14 C17      7.5888  -111.9857   -28.3282 C.3   1 IAC  -0.0850 
 15 H171     8.3576  -111.2342   -28.4247 H     1 IAC   0.0800 
 16 H172     7.0268  -112.1284   -29.2371 H     1 IAC   0.0800 
 17 C18      8.2512  -113.3062   -27.9950 C.2   1 IAC   0.9060 
 18 N        4.8029  -111.0381   -26.0953 N.pl3 1 IAC   0.0332 
 19 H        3.8160  -110.8672   -25.9274 H     1 IAC   0.2700 
 20 O2       9.4878  -113.4240   -28.1348 O.co2 1 IAC  -0.9000 
 21 O3       7.5649  -114.3095   -27.6838 O.co2 1 IAC  -0.9000 
@<TRIPOS>BOND
  1   1   2  ar  
  2   1   9  ar  
  3   1  18  1   
  4   2   3  ar  
  5   2  11  1   
  6   3   4  1   
  7   3   5  ar  
  8   5   6  1   
  9   5   7  ar  
 10   7   8  1   
 11   7   9  ar  
 12   9  10  1   
 13  11  12  2   
 14  11  14  1   
 15  12  13  1   
 16  12  18  1   
 17  14  15  1   
 18  14  16  1   
 19  14  17  1   
 20  17  20  ar  
 21  17  21  ar  
 22  18  19  1   
@<TRIPOS>SUBSTRUCTURE
  1 IAC   2 GROUP 4 B **** 0

# MOE 2019.01 (io_trps.svl 2018.10)
