@<TRIPOS>MOLECULE
2P1Q.B|iaa_EnergyMinimized|mol2|1|dock28
   21    22     1     0     0
SMALL
bcc


@<TRIPOS>ATOM
      1 C            6.0290  -110.8150   -25.1690 ca         1 <1>      -0.069200
      2 C1           7.0870  -111.2420   -25.9640 ca         1 <1>      -0.080800
      3 C2           8.3420  -111.4510   -25.3660 ca         1 <1>      -0.057000
      4 C3           8.4930  -111.2190   -24.0070 ca         1 <1>      -0.181000
      5 C4           7.4010  -110.7860   -23.2190 ca         1 <1>      -0.127000
      6 C5           6.1560  -110.5830   -23.7920 ca         1 <1>      -0.170000
      7 C6           6.5980  -111.3730   -27.2880 cc         1 <1>      -0.019400
      8 C7           5.2820  -111.0300   -27.2780 cd         1 <1>      -0.199100
      9 C8           7.3770  -111.8100   -28.5200 c3         1 <1>      -0.158200
     10 C9           8.1300  -113.0980   -28.2460 c          1 <1>       0.922600
     11 N            4.9280  -110.6950   -25.9920 na         1 <1>      -0.185400
     12 O            9.3600  -113.0960   -28.4780 o          1 <1>      -0.841300
     13 O1           7.4840  -114.1100   -27.8910 o          1 <1>      -0.841300
     14 H            9.1530  -111.7920   -25.9590 ha         1 <1>       0.202000
     15 H1           9.4370  -111.3730   -23.5510 ha         1 <1>       0.116000
     16 H2           7.5390  -110.6230   -22.1810 ha         1 <1>       0.105000
     17 H3           5.3280  -110.2680   -23.2150 ha         1 <1>       0.112000
     18 H4           4.5880  -111.0140   -28.0760 h4         1 <1>       0.151000
     19 H5           8.1020  -111.0480   -28.7600 hc         1 <1>       0.037200
     20 H6           6.6920  -112.0090   -29.3280 hc         1 <1>       0.037200
     21 H7           3.9860  -110.4090   -25.6850 hn         1 <1>       0.247700
@<TRIPOS>BOND
     1     1     2 ar  
     2     1     6 ar  
     3     1    11 1   
     4     2     3 ar  
     5     2     7 1   
     6     3     4 ar  
     7     3    14 1   
     8     4     5 ar  
     9     4    15 1   
    10     5     6 ar  
    11     5    16 1   
    12     6    17 1   
    13     7     8 2   
    14     7     9 1   
    15     8    11 1   
    16     8    18 1   
    17     9    10 1   
    18     9    19 1   
    19     9    20 1   
    20    10    12 ar   
    21    10    13 ar   
    22    11    21 1   
@<TRIPOS>SUBSTRUCTURE
     1 <1>         1 TEMP              0 ****  ****    0 ROOT
