@<TRIPOS>MOLECULE
2P1Q.B
   21    22     1     0     0
SMALL
bcc


@<TRIPOS>ATOM
      1 C            5.7960  -110.9370   -25.1400 ca         1 IAC      -0.069200
      2 C1           7.0030  -111.2570   -25.8310 ca         1 IAC      -0.080800
      3 C2           8.2040  -111.1970   -25.0940 ca         1 IAC      -0.057000
      4 H2           9.1350  -111.4250   -25.5940 ha         1 IAC       0.202000
      5 C3           8.1990  -110.8270   -23.7340 ca         1 IAC      -0.181000
      6 H3           9.1330  -110.7610   -23.1970 ha         1 IAC       0.116000
      7 C4           6.9890  -110.5350   -23.0760 ca         1 IAC      -0.127000
      8 H4           6.9890  -110.2520   -22.0340 ha         1 IAC       0.105000
      9 C5           5.7760  -110.5970   -23.7800 ca         1 IAC      -0.170000
     10 H5           4.8390  -110.3680   -23.2920 ha         1 IAC       0.112000
     11 C7           6.6450  -111.5770   -27.2060 cc         1 IAC      -0.019400
     12 C8           5.3120  -111.4150   -27.3210 cd         1 IAC      -0.199100
     13 H8           4.7290  -111.5880   -28.2110 h4         1 IAC       0.151000
     14 C17          7.5890  -111.9860   -28.3280 c3         1 IAC      -0.158200
     15 H171         8.3580  -111.2340   -28.4250 hc         1 IAC       0.037200
     16 H172         7.0270  -112.1280   -29.2370 hc         1 IAC       0.037200
     17 C18          8.2510  -113.3060   -27.9950 c          1 IAC       0.921600
     18 N            4.8030  -111.0380   -26.0950 na         1 IAC      -0.185400
     19 H            3.8160  -110.8670   -25.9270 hn         1 IAC       0.247700
     20 O2           9.4880  -113.4240   -28.1350 o          1 IAC      -0.841300
     21 O3           7.5650  -114.3090   -27.6840 o          1 IAC      -0.841300
@<TRIPOS>BOND
     1     1     2 ar  
     2     1     9 ar  
     3     1    18 1   
     4     2     3 ar  
     5     2    11 1   
     6     3     4 1   
     7     3     5 ar  
     8     5     6 1   
     9     5     7 ar  
    10     7     8 1   
    11     7     9 ar  
    12     9    10 1   
    13    11    12 2   
    14    11    14 1   
    15    12    13 1   
    16    12    18 1   
    17    14    15 1   
    18    14    16 1   
    19    14    17 1   
    20    17    20 1   
    21    17    21 1   
    22    18    19 1   
@<TRIPOS>SUBSTRUCTURE
     1 IAC         1 TEMP              0 ****  ****    0 ROOT
