@<TRIPOS>MOLECULE
2p1q.B
42 42 1 0 0 
SMALL
USER_CHARGES


@<TRIPOS>ATOM
  1 C1      13.4600  -123.8170   -24.6900 C.3   1 IHP   0.0000 
  2 C2      13.4950  -124.4950   -26.1020 C.3   1 IHP   0.0000 
  3 C3      12.6510  -123.6750   -27.1340 C.3   1 IHP   0.0000 
  4 C4      13.3640  -122.2780   -27.3460 C.3   1 IHP   0.0000 
  5 C5      13.5100  -121.5260   -25.9590 C.3   1 IHP   0.0000 
  6 C6      14.1310  -122.3900   -24.7860 C.3   1 IHP   0.0000 
  7 O11     14.1210  -124.6970   -23.7580 O.3   1 IHP   0.0000 
  8 P1      13.5410  -125.3370   -22.4030 P.3   1 IHP   0.0000 
  9 O21     14.6320  -125.0470   -21.4530 O.co2 1 IHP  -0.6667 
 10 O31     12.2750  -124.6710   -22.0480 O.co2 1 IHP  -0.6667 
 11 O41     13.3190  -126.7630   -22.5510 O.co2 1 IHP  -0.6667 
 12 O12     14.8370  -124.5510   -26.6150 O.3   1 IHP   0.0000 
 13 P2      15.8150  -125.8180   -26.5730 P.3   1 IHP   0.0000 
 14 O22     16.8960  -125.2930   -25.7050 O.co2 1 IHP  -0.6667 
 15 O32     15.0390  -126.9510   -26.0370 O.co2 1 IHP  -0.6667 
 16 O42     16.2370  -125.9330   -27.9810 O.co2 1 IHP  -0.6667 
 17 O13     12.4050  -124.4760   -28.3240 O.3   1 IHP   0.0000 
 18 P3      11.0500  -125.3320   -28.5750 P.3   1 IHP   0.0000 
 19 O23     10.7450  -126.0610   -27.3310 O.co2 1 IHP  -0.6667 
 20 O33     11.1820  -126.1630   -29.7820 O.co2 1 IHP  -0.6667 
 21 O43     10.0440  -124.3040   -28.8190 O.co2 1 IHP  -0.6667 
 22 O14     12.6830  -121.3960   -28.2820 O.3   1 IHP   0.0000 
 23 P4      13.3320  -120.8700   -29.6870 P.3   1 IHP   0.0000 
 24 O24     12.8980  -119.4590   -29.8970 O.co2 1 IHP  -0.6667 
 25 O34     14.7910  -121.0770   -29.6390 O.co2 1 IHP  -0.6667 
 26 O44     12.7080  -121.7080   -30.7100 O.co2 1 IHP  -0.6667 
 27 O15     14.3050  -120.3440   -26.1420 O.3   1 IHP   0.0000 
 28 P5      13.8020  -118.8390   -25.8380 P.3   1 IHP   0.0000 
 29 O25     13.1580  -118.8380   -24.5330 O.co2 1 IHP  -0.6667 
 30 O35     12.8210  -118.4450   -26.8660 O.co2 1 IHP  -0.6667 
 31 O45     15.0780  -118.1040   -25.9030 O.co2 1 IHP  -0.6667 
 32 O16     14.0550  -121.6640   -23.5180 O.3   1 IHP   0.0000 
 33 P6      15.3230  -121.2210   -22.5910 P.3   1 IHP   0.0000 
 34 O26     16.5210  -121.7590   -23.2520 O.co2 1 IHP  -0.6667 
 35 O36     15.0020  -121.8150   -21.2800 O.co2 1 IHP  -0.6667 
 36 O46     15.3720  -119.7660   -22.4640 O.co2 1 IHP  -0.6667 
 37 H1      12.4190  -123.6960   -24.3910 H     1 IHP   0.0000 
 38 H2      13.0560  -125.4900   -26.0190 H     1 IHP   0.0000 
 39 H3      11.6840  -123.4660   -26.6850 H     1 IHP   0.0000 
 40 H4      14.3690  -122.4770   -27.7170 H     1 IHP   0.0000 
 41 H5      12.5120  -121.2230   -25.6460 H     1 IHP   0.0000 
 42 H6      15.1720  -122.5660   -25.0490 H     1 IHP   0.0000 
@<TRIPOS>BOND
  1   1   2  1   
  2   1   6  1   
  3   1   7  1   
  4   1  37  1   
  5   2   3  1   
  6   2  12  1   
  7   2  38  1   
  8   3   4  1   
  9   3  17  1   
 10   3  39  1   
 11   4   5  1   
 12   4  22  1   
 13   4  40  1   
 14   5   6  1   
 15   5  27  1   
 16   5  41  1   
 17   6  32  1   
 18   6  42  1   
 19   7   8  1   
 20   8   9  ar  
 21   8  10  ar  
 22   8  11  ar  
 23  12  13  1   
 24  13  14  ar  
 25  13  15  ar  
 26  13  16  ar  
 27  17  18  1   
 28  18  19  ar  
 29  18  20  ar  
 30  18  21  ar  
 31  22  23  1   
 32  23  24  ar  
 33  23  25  ar  
 34  23  26  ar  
 35  27  28  1   
 36  28  29  ar  
 37  28  30  ar  
 38  28  31  ar  
 39  32  33  1   
 40  33  34  ar  
 41  33  35  ar  
 42  33  36  ar  
@<TRIPOS>SUBSTRUCTURE
  1 IHP   6 GROUP 4 B **** 0

# MOE 2019.01 (io_trps.svl 2018.10)
